*Heading
** Job name: Volta Model name: Model-1
** Generated by: Abaqus/CAE 2022
*Preprint, echo=NO, model=NO, history=NO, contact=NO
**
** PARTS
**
*Part, name=Volta
*Node
      1,           0.,        3300.,   114.990471
      2,         200.,        3300.,   225.588654
      3,         200.,        3500.,   114.982918
      4,           0.,        3500.,           0.
      5,        3300.,        3500.,   114.982918
      6,        3300.,        3300.,   225.588654
      7,        3500.,        3300.,   114.990471
      8,        3500.,        3500.,           0.
      9,         200.,           0.,   114.982918
     10,         200.,         200.,    225.58876
     11,           0.,         200.,    114.99057
     12,           0.,           0.,           0.
     13,        3300.,         200.,    225.58876
     14,        3300.,           0.,   114.982918
     15,        3500.,           0.,           0.
     16,        3500.,         200.,    114.99057
     17,   39.3980217,        3300.,    138.18161
     18,   79.1043396,        3300.,   160.840866
     19,   119.111664,        3300.,   182.964325
     20,   159.412674,        3300.,   204.548157
** ... 7789 like lines cut
*Element, type=S4
 1,   1,  17, 337,  32
 2,  17,  18, 338, 337
 3,  18,  19, 339, 338
 4,  19,  20, 340, 339
 5,  20,   2,  21, 340
 6,  32, 337, 341,  31
 7, 337, 338, 342, 341
 8, 338, 339, 343, 342
 9, 339, 340, 344, 343
10, 340,  21,  22, 344
11,  31, 341, 345,  30
12, 341, 342, 346, 345
13, 342, 343, 347, 346
14, 343, 344, 348, 347
15, 344,  22,  23, 348
16,  30, 345, 349,  29
17, 345, 346, 350, 349
18, 346, 347, 351, 350
19, 347, 348, 352, 351
20, 348,  23,  24, 352
** ... 7528 like lines cut
*Element, type=S3
101, 3513, 3470, 3471
102, 7406, 6486, 6325
103, 2602, 2603, 2608
104, 2515, 2513, 2514
105, 7429, 6484, 6321
106, 6312, 6308, 6313
107, 7425, 7163, 7162
108, 6478, 7460, 6487
109,  912,  913,  917
110,  491,  489,  492
111,  488, 7453,  487
112, 7067, 7069, 7068
113,  982,  941,  942
114, 7212, 7211, 7207
115, 3147, 3208, 3189
116, 7725, 3126, 3124
117, 6421, 6423, 6422
118, 6117, 6119, 6118
119, 7213, 7201, 7214
120,  618,  619,  623
** ... 200 like lines cut
*Nset, nset=Set-1, generate
    1,  7809,     1
*Elset, elset=Set-1, generate
    1,  7768,     1
** Region: (Section-1:Set-1), (Controls:EC-1)
*Elset, elset=_I1, internal
    1,    2,    3,    4,    5,    6,    7,    8,    9,   10,   11,   12,   13,   14,   15,   16
   17,   18,   19,   20,   21,   22,   23,   24,   25,   26,   27,   28,   29,   30,   31,   32
   33,   34,   35,   36,   37,   38,   39,   40,   41,   42,   43,   44,   45,   46,   47,   48
   49,   50,   51,   52,   53,   54,   55,   56,   57,   58,   59,   60,   61,   62,   63,   64
   65,   66,   67,   68,   69,   70,   71,   72,   73,   74,   75,   76,   77,   78,   79,   80
   81,   82,   83,   84,   85,   86,   87,   88,   89,   90,   91,   92,   93,   94,   95,   96
   97,   98,   99,  100,  321,  322,  323,  324,  325,  326,  327,  328,  329,  330,  331,  332
  333,  334,  335,  336,  337,  338,  339,  340,  341,  342,  343,  344,  345,  346,  347,  348
  349,  350,  351,  352,  353,  354,  355,  356,  357,  358,  359,  360,  361,  362,  363,  364
  365,  366,  367,  368,  369,  370,  371,  372,  373,  374,  375,  376,  377,  378,  379,  380
  381,  382,  383,  384,  385,  386,  387,  388,  389,  390,  391,  392,  393,  394,  395,  396
  397,  398,  399,  400,  401,  402,  403,  404,  405,  406,  407,  408,  409,  410,  411,  412
  413,  414,  415,  416,  417,  418,  419,  420,  421,  422,  423,  424,  425,  426,  427,  428
  429,  430,  431,  432,  433,  434,  435,  436,  437,  438,  439,  440,  441,  442,  443,  444
  445,  446,  447,  448,  449,  450,  451,  452,  453,  454,  455,  456,  457,  458,  459,  460
  461,  462,  463,  464,  465,  466,  467,  468,  469,  470,  471,  472,  473,  474,  475,  476
  477,  478,  479,  480,  481,  482,  483,  484,  485,  486,  487,  488,  489,  490,  491,  492
  493,  494,  495,  496,  497,  498,  499,  500,  501,  502,  503,  504,  505,  506,  507,  508
  509,  510,  511,  512,  513,  514,  515,  516,  517,  518,  519,  520,  521,  522,  523,  524
  525,  526,  527,  528,  529,  530,  531,  532,  533,  534,  535,  536,  537,  538,  539,  540
** ... 452 like lines cut
** Section: Section-1
*Shell Section, elset=_I1, material=Masonry, controls=EC-1
20., 5
** Region: (Section-1:Set-1), (Controls:Default)
*Elset, elset=_I2, internal, generate
 101,  320,    1
** Section: Section-1
*Shell Section, elset=_I2, material=Masonry
20., 5
*End Part
**  
**
** ASSEMBLY
**
*Assembly, name=Assembly
**  
*Instance, name=Volta-1, part=Volta
*End Instance
**  
*Nset, nset=Set-1, instance=Volta-1
  4,  8, 12, 15
*Elset, elset=_Surf-1_SPOS, internal, instance=Volta-1, generate
    1,  7768,     1
*Surface, type=ELEMENT, name=Surf-1
_Surf-1_SPOS, SPOS
*End Assembly
** 
** ELEMENT CONTROLS
** 
*Section Controls, name=EC-1, ELEMENT DELETION=YES
1., 1., 1.
*Amplitude, name=Amp-1
           0.01,            0.01,            0.02,            0.02,            0.03,            0.03,            0.04,            0.04
           0.05,            0.05,            0.06,            0.06,            0.07,            0.07,            0.08,            0.08
           0.09,            0.09,             0.1,             0.1,            0.11,            0.11,            0.12,            0.12
           0.13,            0.13,            0.14,            0.14,            0.15,            0.15,            0.16,            0.16
           0.17,            0.17,            0.18,            0.18,            0.19,            0.19,             0.2,             0.2
           0.21,            0.21,            0.22,            0.22,            0.23,            0.23,            0.24,            0.24
           0.25,            0.25,            0.26,            0.26,            0.27,            0.27,            0.28,            0.28
           0.29,            0.29,             0.3,             0.3,            0.31,            0.31,            0.32,            0.32
           0.33,            0.33,            0.34,            0.34,            0.35,            0.35,            0.36,            0.36
           0.37,            0.37,            0.38,            0.38,            0.39,            0.39,             0.4,             0.4
           0.41,            0.41,            0.42,            0.42,            0.43,            0.43,            0.44,            0.44
           0.45,            0.45,            0.46,            0.46,            0.47,            0.47,            0.48,            0.48
           0.49,            0.49,             0.5,             0.5,            0.51,            0.51,            0.52,            0.52
           0.53,            0.53,            0.54,            0.54,            0.55,            0.55,            0.56,            0.56
           0.57,            0.57,            0.58,            0.58,            0.59,            0.59,             0.6,             0.6
           0.61,            0.61,            0.62,            0.62,            0.63,            0.63,            0.64,            0.64
           0.65,            0.65,            0.66,            0.66,            0.67,            0.67,            0.68,            0.68
           0.69,            0.69,             0.7,             0.7,            0.71,            0.71,            0.72,            0.72
           0.73,            0.73,            0.74,            0.74,            0.75,            0.75,            0.76,            0.76
           0.77,            0.77,            0.78,            0.78,            0.79,            0.79,             0.8,             0.8
** ... 5 like lines cut
** 
** MATERIALS
** 
*Material, name=Masonry
*Density
 1.8e-09,
*Elastic
 3747.5, 0.2
*Concrete Damaged Plasticity
35.,   0.1,  1.16,  0.67, 1e-05
*Concrete Compression Hardening
 5.27759,       0.
 5.59866, 0.000166
  5.8194, 0.000253
  6.0602, 0.000342
  6.2408, 0.000465
  6.4214, 0.000613
 6.56187, 0.000807
 6.60201, 0.000988
 6.62207, 0.001217
 6.58194, 0.001422
 6.56187,  0.00157
 6.48161, 0.001837
 6.32107, 0.002093
  6.1204, 0.002328
  5.9398, 0.002574
 5.73913, 0.002825
 5.53846, 0.003043
 5.35786,  0.00323
 5.11706, 0.003468
 4.89632, 0.003718
** ... 16 like lines cut
*Concrete Tension Stiffening
   0.22042,       0.
  0.218511,  4.9e-05
  0.214695,  5.2e-05
  0.209447,  5.7e-05
  0.204676,    6e-05
  0.199905,  6.3e-05
  0.194179,  7.1e-05
  0.188454,  7.6e-05
  0.183683,  8.1e-05
  0.177958,  9.1e-05
  0.170802,   0.0001
  0.166508, 0.000104
  0.162691, 0.000112
  0.156489, 0.000121
   0.15124, 0.000129
  0.145515, 0.000137
  0.139313, 0.000153
  0.134065, 0.000159
  0.129294, 0.000171
     0.125, 0.000182
** ... 28 like lines cut
*Concrete Compression Damage
     0.,       0.
     0., 0.000109
     0., 0.000166
     0., 0.000253
     0., 0.000342
     0., 0.000465
     0., 0.000613
     0., 0.000807
     0., 0.000988
     0., 0.001217
 0.0061, 0.001422
 0.0091,  0.00157
 0.0212, 0.001837
 0.0455, 0.002093
 0.0758, 0.002328
  0.103, 0.002574
 0.1333, 0.002825
 0.1636, 0.003043
 0.1909,  0.00323
 0.2273, 0.003468
** ... 17 like lines cut
*Concrete Tension Damage
     0.,       0.
 0.0087,  4.9e-05
  0.026,  5.2e-05
 0.0498,  5.7e-05
 0.0714,    6e-05
 0.0931,  6.3e-05
  0.119,  7.1e-05
  0.145,  7.6e-05
 0.1667,  8.1e-05
 0.1926,  9.1e-05
 0.2251,   0.0001
 0.2446, 0.000104
 0.2619, 0.000112
   0.29, 0.000121
 0.3139, 0.000129
 0.3398, 0.000137
  0.368, 0.000153
 0.3918, 0.000159
 0.4134, 0.000171
 0.4329, 0.000182
** ... 27 like lines cut
*Concrete Failure, TYPE=Strain
0.000578,0.007566,0.8723,0.8061
** ----------------------------------------------------------------
** 
** STEP: Step-1
** 
*Step, name=Step-1, nlgeom=YES
*Dynamic, Explicit
, 1.
*Bulk Viscosity
0.06, 1.2
** 
** BOUNDARY CONDITIONS
** 
** Name: BC-1 Type: Displacement/Rotation
*Boundary
Set-1, 1, 1
Set-1, 2, 2
Set-1, 3, 3
** 
** LOADS
** 
** Name: Load-1   Type: Pressure
*Dsload
Surf-1, P, 0.003
** Name: Load-2   Type: Gravity
*Dload
, GRAV, 9810., 0., 0., -1.
** 
** OUTPUT REQUESTS
** 
*Restart, write, number interval=1, time marks=NO
** 
** FIELD OUTPUT: F-Output-1
** 
*Output, field, time interval=0.01
*Node Output
A, RF, U, V
*Element Output, directions=YES
DAMAGEC, DAMAGET, EVF, LE, PE, PEEQ, PEEQVAVG, PEVAVG, S, STATUS, SVAVG
*Contact Output
CSTRESS, 
** 
** HISTORY OUTPUT: H-Output-1
** 
*Output, history, variable=PRESELECT
*End Step
