*Heading
** Job name: Job-1 Model name: Model-1
** Generated by: Abaqus/CAE 2022
*Preprint, echo=NO, model=NO, history=NO, contact=NO
**
** PARTS
**
*Part, name=Volta
*Node
      1,           0.,        3300.,   114.990471
      2,         200.,        3300.,   225.588654
      3,         200.,        3500.,   114.982918
      4,           0.,        3500.,           0.
      5,        3300.,        3500.,   114.982918
      6,        3300.,        3300.,   225.588654
      7,        3500.,        3300.,   114.990471
      8,        3500.,        3500.,           0.
      9,         200.,           0.,   114.982918
     10,         200.,         200.,    225.58876
     11,           0.,         200.,    114.99057
     12,           0.,           0.,           0.
     13,        3300.,         200.,    225.58876
     14,        3300.,           0.,   114.982918
     15,        3500.,           0.,           0.
     16,        3500.,         200.,    114.99057
     17,   99.0708313,        3300.,   171.969818
     18,         200.,   3400.92773,   171.963196
     19,   98.9987106,        3500.,   59.2330971
     20,           0.,   3401.00586,   59.2446365
** ... 1936 like lines cut
*Element, type=S4R
1,   1,  17, 157,  20
2,  17,   2,  18, 157
3,  20, 157,  19,   4
4, 157,  18,   3,  19
5,   5,  21, 158,  24
6,  21,   6,  22, 158
7,  24, 158,  23,   8
8, 158,  22,   7,  23
 9,   9,  25, 159,  28
10,  25,  10,  26, 159
11,  28, 159,  27,  12
12, 159,  26,  11,  27
13,  13,  29, 160,  32
14,  29,  14,  30, 160
15,  32, 160,  31,  16
16, 160,  30,  15,  31
  73,  156,   14,   29, 1815
  74, 1815, 1790,  155,  156
  75,  153,  154, 1788, 1779
  76,  152,  153, 1779, 1776
** ... 1835 like lines cut
*Element, type=S3
17, 1871, 1880,  982
18, 1873,  966,  986
19,  232,  296,  300
20, 1762, 1754, 1763
21,  968,  957,  969
22,  240,  225,  236
23,  878,  876,  877
24, 1590, 1595, 1594
25,  218,  233,  237
26,  852, 1939,  864
27, 1698, 1725, 1697
28,  483,  489,  488
29,  481,  401,  477
30, 1915,  393,  391
31,  886, 1442, 1440
32, 1938,  502,  511
33,  416,  414,  415
34,  573,  568,  570
35,  562, 1936,  551
36, 1437, 1435, 1436
** ... 36 like lines cut
*Nset, nset=Set-1, generate
    1,  1956,     1
*Elset, elset=Set-1, generate
    1,  1911,     1
** Section: Section-1
*Shell Section, elset=Set-1, material=Masonry
35., 5
*End Part
**  
**
** ASSEMBLY
**
*Assembly, name=Assembly
**  
*Instance, name=Volta-1, part=Volta
*End Instance
**  
*Nset, nset=Set-1, instance=Volta-1
   1,   2,   3,   4,   5,   6,   7,   8,   9,  10,  11,  12,  13,  14,  15,  16
  17,  18,  19,  20,  21,  22,  23,  24,  25,  26,  27,  28,  29,  30,  31,  32
 157, 158, 159, 160
*Elset, elset=Set-1, instance=Volta-1, generate
  1,  16,   1
*Nset, nset=Set-2, instance=Volta-1
  4,  8, 12, 15
*Elset, elset=_Surf-1_SPOS, internal, instance=Volta-1, generate
    1,  1911,     1
*Surface, type=ELEMENT, name=Surf-1
_Surf-1_SPOS, SPOS
*End Assembly
*Amplitude, name=Amp-1
           0.01,            0.01,            0.02,            0.02,            0.03,            0.03,            0.04,            0.04
           0.05,            0.05,            0.06,            0.06,            0.07,            0.07,            0.08,            0.08
           0.09,            0.09,             0.1,             0.1,            0.11,            0.11,            0.12,            0.12
           0.13,            0.13,            0.14,            0.14,            0.15,            0.15,            0.16,            0.16
           0.17,            0.17,            0.18,            0.18,            0.19,            0.19,             0.2,             0.2
           0.21,            0.21,            0.22,            0.22,            0.23,            0.23,            0.24,            0.24
           0.25,            0.25,            0.26,            0.26,            0.27,            0.27,            0.28,            0.28
           0.29,            0.29,             0.3,             0.3,            0.31,            0.31,            0.32,            0.32
           0.33,            0.33,            0.34,            0.34,            0.35,            0.35,            0.36,            0.36
           0.37,            0.37,            0.38,            0.38,            0.39,            0.39,             0.4,             0.4
           0.41,            0.41,            0.42,            0.42,            0.43,            0.43,            0.44,            0.44
           0.45,            0.45,            0.46,            0.46,            0.47,            0.47,            0.48,            0.48
           0.49,            0.49,             0.5,             0.5,            0.51,            0.51,            0.52,            0.52
           0.53,            0.53,            0.54,            0.54,            0.55,            0.55,            0.56,            0.56
           0.57,            0.57,            0.58,            0.58,            0.59,            0.59,             0.6,             0.6
           0.61,            0.61,            0.62,            0.62,            0.63,            0.63,            0.64,            0.64
           0.65,            0.65,            0.66,            0.66,            0.67,            0.67,            0.68,            0.68
           0.69,            0.69,             0.7,             0.7,            0.71,            0.71,            0.72,            0.72
           0.73,            0.73,            0.74,            0.74,            0.75,            0.75,            0.76,            0.76
           0.77,            0.77,            0.78,            0.78,            0.79,            0.79,             0.8,             0.8
** ... 5 like lines cut
** 
** MATERIALS
** 
*Material, name=Masonry
*Density
 1.8e-09,
*Elastic
 3747.5, 0.2
** ----------------------------------------------------------------
** 
** STEP: Step-1
** 
*Step, name=Step-1, nlgeom=NO, perturbation
*Frequency, eigensolver=Lanczos, sim, acoustic coupling=on, normalization=mass
6, , , , , 
** 
** BOUNDARY CONDITIONS
** 
** Name: BC-1 Type: Displacement/Rotation
*Boundary
Set-2, 1, 1
Set-2, 2, 2
Set-2, 3, 3
** 
** OUTPUT REQUESTS
** 
*Restart, write, frequency=0
** 
** FIELD OUTPUT: F-Output-1
** 
*Output, field, variable=PRESELECT
** 
** HISTORY OUTPUT: H-Output-1
** 
*Output, history, variable=PRESELECT
*End Step
