*Heading
** Job name: HEA400-2023 Model name: Model-1
** Generated by: Abaqus/CAE Student Edition 2019
*Preprint, echo=NO, model=NO, history=NO, contact=NO
**
** PARTS
**
*Part, name=Viga
*End Part
**  
**
** ASSEMBLY
**
*Assembly, name=Assembly
**  
*Instance, name=Viga-1, part=Viga
*Node
      1,           0.,           0.,           0.
      2,           0.,         100.,           0.
      3,           0.,         200.,           0.
      4,           0.,         300.,           0.
      5,           0.,         400.,           0.
      6,           0.,         500.,           0.
      7,           0.,         600.,           0.
      8,           0.,         700.,           0.
      9,           0.,         800.,           0.
     10,           0.,         900.,           0.
     11,           0.,        1000.,           0.
     12,           0.,        1100.,           0.
     13,           0.,        1200.,           0.
     14,           0.,        1300.,           0.
     15,           0.,        1400.,           0.
     16,           0.,        1500.,           0.
     17,           0.,        1600.,           0.
     18,           0.,        1700.,           0.
     19,           0.,        1800.,           0.
     20,           0.,        1900.,           0.
** ... 11 like lines cut
*Element, type=B31OS
 1,  1,  2
 2,  2,  3
 3,  3,  4
 4,  4,  5
 5,  5,  6
 6,  6,  7
 7,  7,  8
 8,  8,  9
 9,  9, 10
10, 10, 11
11, 11, 12
12, 12, 13
13, 13, 14
14, 14, 15
15, 15, 16
16, 16, 17
17, 17, 18
18, 18, 19
19, 19, 20
20, 20, 21
** ... 10 like lines cut

*Nset, nset=Set-1, generate
  1,  31,   1
*Elset, elset=Set-1, generate
  1,  30,   1

** Section: HEA400  Profile: Profile-1
*Beam Section, elset=Set-1, material=Acero, temperature=GRADIENTS, section=I
195., 390., 300., 300., 19., 19., 11.
0.,0.,-1.
*End Instance
**  
*Nset, nset=Set-1, instance=Viga-1
 31,
*Nset, nset=Set-2, instance=Viga-1
 1,
*End Assembly
** 
** MATERIALS
** 
*Material, name=Acero
*Elastic
210000., 0.3
*Plastic
355.,  0.
355., 0.1
** 
** BOUNDARY CONDITIONS
** 
** Name: BC-1 Type: Displacement/Rotation
*Boundary
Set-2, 1, 1
Set-2, 2, 2
Set-2, 3, 3
Set-2, 4, 4
Set-2, 5, 5
Set-2, 6, 6
** ----------------------------------------------------------------
** 
** STEP: Step-1
** 
*Step, name=Step-1, nlgeom=NO, perturbation
*Buckle
20, , 28, 500
** 
** BOUNDARY CONDITIONS
** 
** Name: BC-1 Type: Displacement/Rotation
*Boundary, op=NEW, load case=1
Set-2, 1, 1
Set-2, 2, 2
Set-2, 3, 3
Set-2, 4, 4
Set-2, 5, 5
Set-2, 6, 6
*Boundary, op=NEW, load case=2
Set-2, 1, 1
Set-2, 2, 2
Set-2, 3, 3
Set-2, 4, 4
Set-2, 5, 5
Set-2, 6, 6
** 
** LOADS
** 
** Name: Load-1   Type: Concentrated force
*Cload
Set-1, 2, -1000.
** 
** OUTPUT REQUESTS
** 
*Restart, write, frequency=0
** 
** FIELD OUTPUT: F-Output-1
** 
*Output, field, variable=PRESELECT
*Node File
U
*End Step
