*Heading
** Job name: Shear_23 Model name: Model-1
** Generated by: Abaqus/CAE Student Edition 2019
*Preprint, echo=NO, model=NO, history=NO, contact=NO
**
** PARTS
**
*Part, name=Viga
*End Part
**  
**
** ASSEMBLY
**
*Assembly, name=Assembly
**  
*Instance, name=Viga-1, part=Viga
*Node
      1,         600.,         250.,           0.
      2,         600.,         250.,         100.
      3,         600.,        -250.,         100.
      4,         600.,        -250.,           0.
      5,        1100.,         250.,           0.
      6,        1100.,         250.,         100.
      7,        1100.,        -250.,         100.
      8,        1100.,        -250.,           0.
      9,        1600.,         250.,           0.
     10,        1600.,         250.,         100.
     11,        1600.,        -250.,           0.
     12,        1600.,        -250.,         100.
     13,         600.,        -250.,        -100.
     14,        1600.,        -250.,        -100.
     15,         600.,         250.,        -100.
     16,        1600.,         250.,        -100.
     17,         600.,         250.,          50.
     18,         600.,         200.,         100.
     19,         600.,         150.,         100.
     20,         600.,         100.,         100.
** ... 433 like lines cut
*Element, type=S4R
 1,   1,  17, 191,  36
 2,  17,   2,  18, 191
 3,  36, 191, 192,  35
 4, 191,  18,  19, 192
 5,  35, 192, 193,  34
 6, 192,  19,  20, 193
 7,  34, 193, 194,  33
 8, 193,  20,  21, 194
 9,  33, 194, 195,  32
10, 194,  21,  22, 195
11,  32, 195, 196,  31
12, 195,  22,  23, 196
13,  31, 196, 197,  30
14, 196,  23,  24, 197
15,  30, 197, 198,  29
16, 197,  24,  25, 198
17,  29, 198, 199,  28
18, 198,  25,  26, 199
19,  28, 199,  27,   4
20, 199,  26,   3,  27
** ... 400 like lines cut
*Nset, nset=Set-1
   1,   4,   5,   8,   9,  11,  28,  29,  30,  31,  32,  33,  34,  35,  36,  48
  49,  50,  51,  52,  53,  54,  55,  56,  57,  58,  59,  60,  61,  62,  63,  64
  65,  76,  77,  78,  79,  80,  81,  82,  83,  84,  85,  86,  87,  88,  89,  90
  91,  92,  93, 103, 104, 105, 106, 107, 108, 109, 110, 111, 152, 153, 154, 155
 156, 157, 158, 159, 160, 218, 219, 220, 221, 222, 223, 224, 225, 226, 227, 228
 229, 230, 231, 232, 233, 234, 235, 236, 237, 238, 239, 240, 241, 242, 243, 244
 245, 246, 247, 248, 249, 250, 251, 252, 253, 254, 255, 256, 257, 258, 259, 260
 261, 262, 263, 264, 265, 266, 267, 268, 269, 270, 271, 272, 273, 274, 275, 276
 277, 278, 279, 280, 281, 282, 283, 284, 285, 286, 287, 288, 289, 290, 291, 292
 293, 294, 295, 296, 297, 298, 345, 346, 347, 348, 349, 350, 351, 352, 353, 354
 355, 356, 357, 358, 359, 360, 361, 362, 363, 364, 365, 366, 367, 368, 369, 370
 371, 372, 373, 374, 375, 376, 377, 378, 379, 380, 381, 382, 383, 384, 385, 386
 387, 388, 389, 390, 391, 392, 393, 394, 395, 396, 397, 398, 399, 400, 401, 402
 403, 404, 405, 406, 407, 408, 409, 410, 411, 412, 413, 414, 415, 416, 417, 418
 419, 420, 421, 422, 423, 424, 425
*Elset, elset=Set-1
  61,  62,  63,  64,  65,  66,  67,  68,  69,  70,  71,  72,  73,  74,  75,  76
  77,  78,  79,  80,  81,  82,  83,  84,  85,  86,  87,  88,  89,  90,  91,  92
  93,  94,  95,  96,  97,  98,  99, 100, 101, 102, 103, 104, 105, 106, 107, 108
 109, 110, 111, 112, 113, 114, 115, 116, 117, 118, 119, 120, 121, 122, 123, 124
 125, 126, 127, 128, 129, 130, 131, 132, 133, 134, 135, 136, 137, 138, 139, 140
 141, 142, 143, 144, 145, 146, 147, 148, 149, 150, 151, 152, 153, 154, 155, 156
 157, 158, 159, 160, 261, 262, 263, 264, 265, 266, 267, 268, 269, 270, 271, 272
 273, 274, 275, 276, 277, 278, 279, 280, 281, 282, 283, 284, 285, 286, 287, 288
 289, 290, 291, 292, 293, 294, 295, 296, 297, 298, 299, 300, 301, 302, 303, 304
 305, 306, 307, 308, 309, 310, 311, 312, 313, 314, 315, 316, 317, 318, 319, 320
 321, 322, 323, 324, 325, 326, 327, 328, 329, 330, 331, 332, 333, 334, 335, 336
 337, 338, 339, 340, 341, 342, 343, 344, 345, 346, 347, 348, 349, 350, 351, 352
 353, 354, 355, 356, 357, 358, 359, 360
*Nset, nset=Set-2
   1,   2,   3,   4,   5,   6,   7,   8,   9,  10,  11,  12,  17,  18,  19,  20
  21,  22,  23,  24,  25,  26,  27,  28,  29,  30,  31,  32,  33,  34,  35,  36
  37,  38,  39,  40,  41,  42,  43,  44,  45,  46,  47,  48,  49,  50,  51,  52
  53,  54,  55,  56,  66,  85,  86,  87,  88,  89,  90,  91,  92,  93, 112, 113
 114, 115, 116, 117, 118, 119, 120, 121, 191, 192, 193, 194, 195, 196, 197, 198
 199, 200, 201, 202, 203, 204, 205, 206, 207, 208, 308, 309, 310, 311, 312, 313
 314, 315, 316
*Elset, elset=Set-2
   1,   2,   3,   4,   5,   6,   7,   8,   9,  10,  11,  12,  13,  14,  15,  16
  17,  18,  19,  20,  21,  22,  23,  24,  25,  26,  27,  28,  29,  30,  31,  32
  33,  34,  35,  36,  37,  38,  39,  40, 181, 182, 183, 184, 185, 186, 187, 188
 189, 190, 191, 192, 193, 194, 195, 196, 197, 198, 199, 200
*Nset, nset=Set-3
   1,   2,   3,   4,   5,   6,   7,   8,   9,  10,  11,  12,  13,  14,  15,  16
  17,  27,  37,  47,  57,  58,  59,  60,  61,  62,  63,  64,  65,  66,  67,  68
  69,  70,  71,  72,  73,  74,  75,  76,  77,  78,  79,  80,  81,  82,  83,  84
  94,  95,  96,  97,  98,  99, 100, 101, 102, 103, 104, 105, 106, 107, 108, 109
 110, 111, 121, 122, 123, 124, 125, 126, 127, 128, 129, 130, 131, 132, 133, 134
 135, 136, 137, 138, 139, 140, 141, 142, 143, 144, 145, 146, 147, 148, 149, 150
 151, 152, 153, 154, 155, 156, 157, 158, 159, 160, 161, 162, 163, 164, 165, 166
 167, 168, 169, 170, 171, 172, 173, 174, 175, 176, 177, 178, 179, 180, 181, 182
 183, 184, 185, 186, 187, 188, 189, 190, 209, 210, 211, 212, 213, 214, 215, 216
 217, 299, 300, 301, 302, 303, 304, 305, 306, 307, 317, 318, 319, 320, 321, 322
 323, 324, 325, 326, 327, 328, 329, 330, 331, 332, 333, 334, 335, 336, 337, 338
 339, 340, 341, 342, 343, 344, 426, 427, 428, 429, 430, 431, 432, 433, 434, 435
 436, 437, 438, 439, 440, 441, 442, 443, 444, 445, 446, 447, 448, 449, 450, 451
 452, 453
*Elset, elset=Set-3
  41,  42,  43,  44,  45,  46,  47,  48,  49,  50,  51,  52,  53,  54,  55,  56
  57,  58,  59,  60, 161, 162, 163, 164, 165, 166, 167, 168, 169, 170, 171, 172
 173, 174, 175, 176, 177, 178, 179, 180, 201, 202, 203, 204, 205, 206, 207, 208
 209, 210, 211, 212, 213, 214, 215, 216, 217, 218, 219, 220, 221, 222, 223, 224
 225, 226, 227, 228, 229, 230, 231, 232, 233, 234, 235, 236, 237, 238, 239, 240
 241, 242, 243, 244, 245, 246, 247, 248, 249, 250, 251, 252, 253, 254, 255, 256
 257, 258, 259, 260, 361, 362, 363, 364, 365, 366, 367, 368, 369, 370, 371, 372
 373, 374, 375, 376, 377, 378, 379, 380, 381, 382, 383, 384, 385, 386, 387, 388
 389, 390, 391, 392, 393, 394, 395, 396, 397, 398, 399, 400, 401, 402, 403, 404
 405, 406, 407, 408, 409, 410, 411, 412, 413, 414, 415, 416, 417, 418, 419, 420
 
** Section: Rig
*Shell Section, elset=Set-2, material=Acero
40., 5
** Section: Ala
*Shell Section, elset=Set-3, material=Acero
40., 5
** Section: Alma
*Shell Section, elset=Set-1, material=Acero
6., 5
*End Instance
**  
*Nset, nset=Set-1, instance=Viga-1
  11,  12,  14, 121, 151
*Elset, elset=Set-1, instance=Viga-1
 199, 200, 219, 220, 259, 260
*Nset, nset=Set-2, instance=Viga-1
   3,   4,  13,  27, 131
*Elset, elset=Set-2, instance=Viga-1
  19,  20, 179, 180, 221, 222
*Nset, nset=Set-3, instance=Viga-1
 5, 6
*End Assembly
** 
** MATERIALS
** 
*Material, name=Acero
*Elastic
210000., 0.3
*Plastic
355.,  0.
355., 0.1
**
** BOUNDARY CONDITIONS
** 
** Name: BC-1 Type: Displacement/Rotation
*Boundary
Set-1, 1, 1
Set-1, 2, 2
Set-1, 3, 3
** Name: BC-2 Type: Displacement/Rotation
*Boundary
Set-2, 2, 2
Set-2, 3, 3
** ----------------------------------------------------------------
** 
** STEP: Step-1
** 
*IMPERFECTION,FILE=Shear_23_FIL, Step=1
1, 2.5
**
*Step, name=Step-1, nlgeom=YES, inc=300
*Static, riks
0.05, 1., 1e-09, 1.0, 5000,
** 
** BOUNDARY CONDITIONS
** 
** Name: BC-1 Type: Displacement/Rotation
*Boundary, op=NEW, load case=1
Set-1, 1, 1
Set-1, 2, 2
Set-1, 3, 3
** Name: BC-2 Type: Displacement/Rotation
*Boundary, op=NEW, load case=1
Set-2, 2, 2
Set-2, 3, 3
** 
** LOADS
** 
** Name: Load-1   Type: Concentrated force
*Cload
Set-3, 2, -125000.
** 
** OUTPUT REQUESTS
** 
*Restart, write, frequency=0
** 
** FIELD OUTPUT: F-Output-1
** 
*Output, field, variable=PRESELECT
*Node file
U
*End Step
