*Heading
** Job name: SoliDJSON Model name: Model-1
** Generated by: Abaqus/CAE Student Edition 2019
*Preprint, echo=NO, model=NO, history=NO, contact=NO
**
** PARTS
**
*Part, name=Part-1
*Node
      1,         -15.,       -21.25,         100.
      2,         -15.,   -10.416667,         100.
      3,         -15.,  0.416666657,         100.
      4,         -15.,        11.25,         100.
      5,         -15.,       -21.25,          90.
      6,         -15.,   -10.416667,          90.
      7,         -15.,  0.416666657,          90.
      8,         -15.,        11.25,          90.
      9,         -15.,       -21.25,          80.
     10,         -15.,   -10.416667,          80.
     11,         -15.,  0.416666657,          80.
     12,         -15.,        11.25,          80.
     13,         -15.,       -21.25,          70.
     14,         -15.,   -10.416667,          70.
     15,         -15.,  0.416666657,          70.
     16,         -15.,        11.25,          70.
     17,         -15.,       -21.25,          60.
     18,         -15.,   -10.416667,          60.
     19,         -15.,  0.416666657,          60.
     20,         -15.,        11.25,          60.
** ... 200 like lines cut
*Element, type=C3D8R
  1,  45,  46,  50,  49,   1,   2,   6,   5
  2,  46,  47,  51,  50,   2,   3,   7,   6
  3,  47,  48,  52,  51,   3,   4,   8,   7
  4,  49,  50,  54,  53,   5,   6,  10,   9
  5,  50,  51,  55,  54,   6,   7,  11,  10
  6,  51,  52,  56,  55,   7,   8,  12,  11
  7,  53,  54,  58,  57,   9,  10,  14,  13
  8,  54,  55,  59,  58,  10,  11,  15,  14
  9,  55,  56,  60,  59,  11,  12,  16,  15
 10,  57,  58,  62,  61,  13,  14,  18,  17
 11,  58,  59,  63,  62,  14,  15,  19,  18
 12,  59,  60,  64,  63,  15,  16,  20,  19
 13,  61,  62,  66,  65,  17,  18,  22,  21
 14,  62,  63,  67,  66,  18,  19,  23,  22
 15,  63,  64,  68,  67,  19,  20,  24,  23
 16,  65,  66,  70,  69,  21,  22,  26,  25
 17,  66,  67,  71,  70,  22,  23,  27,  26
 18,  67,  68,  72,  71,  23,  24,  28,  27
 19,  69,  70,  74,  73,  25,  26,  30,  29
 20,  70,  71,  75,  74,  26,  27,  31,  30
** ... 100 like lines cut
*Nset, nset=Set-1, generate
   1,  220,    1
*Elset, elset=Set-1, generate
   1,  120,    1
** Section: Section-1
*Solid Section, elset=Set-1, material=Steel
,
*End Part
**  
**
** ASSEMBLY
**
*Assembly, name=Assembly
**  
*Instance, name=Part-1-1, part=Part-1
*End Instance
**  
*Nset, nset=Set-1, instance=Part-1-1
   1,   2,   3,   4,  45,  46,  47,  48,  89,  90,  91,  92, 133, 134, 135, 136
 177, 178, 179, 180
*Elset, elset=Set-1, instance=Part-1-1
  1,  2,  3, 31, 32, 33, 61, 62, 63, 91, 92, 93
*Nset, nset=Set-2, instance=Part-1-1
 217
*End Assembly
** 
** MATERIALS
** 
*Material, name=Steel
*Elastic
210000., 0.3
** ----------------------------------------------------------------
** 
** STEP: Step-1
** 
*Step, name=Step-1, nlgeom=NO
*Static
1., 1., 1e-05, 1.
** 
** BOUNDARY CONDITIONS
** 
** Name: BC-1 Type: Displacement/Rotation
*Boundary
Set-1, 1, 1
Set-1, 2, 2
Set-1, 3, 3
Set-1, 4, 4
Set-1, 5, 5
Set-1, 6, 6
** 
** LOADS
** 
** Name: Load-1   Type: Concentrated force
*Cload
Set-2, 1, 2000.
** 
** OUTPUT REQUESTS
** 
*Restart, write, frequency=0
** 
** FIELD OUTPUT: F-Output-1
** 
*Output, field, variable=PRESELECT
** 
** HISTORY OUTPUT: H-Output-1
** 
*Output, history, variable=PRESELECT
*End Step
